8
	Energy:      -4.7343653
C         -2.40592        0.87517       -0.00000
C         -0.89452        0.83081       -0.00000
H         -2.76540        1.72899       -0.58206
H         -2.78770        0.96904        1.02101
H         -2.81729       -0.03868       -0.43895
H         -0.48315        1.74466        0.43895
H         -0.51273        0.73694       -1.02101
H         -0.53504       -0.02301        0.58206
